tests/data/CTEEP-BR-sys/sistemaCTEEP.pwf
(ARQUIVO GRAVADO A PARTIR DO PROGRAMA ORGANON)
TITU
**EPE DECENAL 2026** PESADA ** ANO 2020 ** NORTE SECO
DOPC
(Op) E (Op) E (Op) E (Op) E (Op) E (Op) E (Op) E (Op) E (Op) E (Op) E
NEWT L STEP L CREM L CELO L
RCVG L RMON L MOST L MOSG L MOSF L FILE L CONT L
QLIM L
CTAP D
TAPD D
CSCA D
CPHS D
99999
(Mn) ( Val) (Mn) ( Val) (Mn) ( Val) (Mn) ( Val) (Mn) ( Val) (Mn) ( Val)
DCTE
BASE 100.
TEPA .1
TEPR .1
VFLD 80.
ACIT     35
99999
DBAR
(Num)OETGb(   nome   )Gl( V)( A)( Pg)( Qg)( Qn)( Qm)(Bc  )( Pl)( Ql)( Sh)Are(Vf)M(1)(2)(3)(4)(5)(6)(7)(8)(9)(10
 2046 L  KJAGUAR-SP088 01003-63.                          -25.8-5.41      47 961
 2048 L  MPARAIB-SP138 01008-60.                          -69.9-2.92      481000
 2203 L  KOURIN--SP088 01002-30.                          -2.784.752      471010
 2611 L  RI.SOLT-SP440 71027-6.3                          -3651116.3      45 993
 2612 L  MI.SOLT-SP138 01013-6.8                          .7495-9.03      46 991
 2613 L  RJUPIA--SP440 71025-6.3                          -1194146.7      45 938
 2614 L  MJUPI-A-SP138 01006-4.3                          -175.27.83      46 965
 2615 L  RTIRMAO-SP440 71026-5.                           -731.104.6      45 976
 2616 L  MT.IRMA-SP138 01007-5.8                          -18.5.2695      46 994
 2617 L  SAVERME-SP500 41069-13.                          -1831-745.      451020
 2618 L  RAVERML-SP440 71024-12.                          -12581.557      451000
 2619 L  MAVERML-SP138 01001-13.                          -16.9-9.13      461010
 2620 L  RTAQUAR-SP440 71022-5.6                          -1900123.3      451002
 2621 L  MTAQURB-SP138 01008-6.7                          -91.27.793      46 998
 2622 L  RCAPIVA-SP440 71015-10.                          -582.38.35      451000
 2623 L  MCAPI1B-SP138 01010-11.                          -45.8-10.3      46 998
 2624 L  RASSIS--SP440 71019-23.                          -1459-794.      451047
 2625 L  OASSIS--SP230 01002-26.                          -21.5-35.6      501012
 2626 L  OASSIS2-SP230 01002-26.                          -11.9-28.1      501057
 2627 L  KASSIS--SP088 01002-24.                          -6.2145.78      471020
 2628 L  RBAURU--SP440 71018-32.                          0.   0.         451053
 2629 L  MBAURU--SP138 01013-33.                          258.666.42      461020
 2630 L  RARARAQ-SP440 71020-35.                          -1355-854.      451053
 2631 L  MARARAQ-SP138 01008-37.                          58.9773.41      491040
 2632 L  RR.PRET-SP440 71039-36.                          -472.-375.      451020
 2633 L  MR.PRET-SP138 01012-37.                          249.491.63      491046
 2634 L  RS.BARB-SP440 71024-45.                               63.23      451020
 2635 L  MS.BARB-SP138 01010-49.                          617. 183.5      491038
 2636 L  RSUMARE-SP440 71023-46.                                          451020
 2637 L  MSUMAEB-SP138 01012-50.                          476.3101.       491010
 2638 L  RBJARDI-SP440 71025-50.                          -97.4-270.      451012
 2639 L  MB.JARD-SP138 01008-53.                          10.96-9.13      491014
 2640 L  MJAMB---SP138 01007-60.                          4.04 -.034      481000
 2641 L  ROESTE--SP440 71024-50.                                          451020
 2642 L  KOESTE--SP088 01005-54.                          602.324.42      471016
 2643 L  REMBU---SP440 71021-52.                                          451020
 2644 L2 DEMBU--SIN013 01014-52.     -18. -175.250.                       45 990
 2645 L  QEMBU---SP345 01023-53.                                          501020
 2646 L  MEMBU---SP138 01006-56.                          281.797.25200.  48 886
 2647 L  RCABREU-SP440 71022-50.                                          451020
 2648 L  RCABRE2-SP440 71022-51.                          12.12-60.6      45 917
 2649 L  OCABREU-SP230 0 999-52.                          436.7160.3      501020
 2650 L  MCABRE1-SP138 01008-53.                          67.74-6.68      49 928
 2651 L  RSANGEL-SP440 71034-51.                                          451020
 2652 L1 DSANGELSIN013 01025-51.     -25.3-175.250.                       45 963
 2653 L  QS.ANGE-SP345 01030-52.                                          501020
 2654 L  MSANGEL-SP138 01009-54.                          15.59.7733      48 994
 2655 L  STAUBAT-SP500 41055-57.                          1461.-416.      451000
 2656 L  RTAUBAT-SP440 71007-57.                          -201.-116.      45 997
 2657 L  OTAUBAT-SP230 0 981-58.                                          501030
 2658 L  MTAUBAT-SP138 01007-60.                          387.46.084      481020
 2659 L  RM.MIR3-SP440 71025-46.                                          451020
 2660 L  MM.MIR3-SP138 01013-50.                          70.92-3.08      49 977
 2661 L  MM.MIR2-SP138 01003-51.                          138.610.39      49 978
 2662 L  STAUBA2-SP500 41055-57.                          1393.-267.      451000
 2663 L  MP.PRIM-SP138 01016-8.7                          11.533.151      461014
 2664 L  RDJAND1-SP440 71018-52.                          .751220.75      451020
 2665 L  RDJAND2-SP440 71018-53.                                          45 996
 2666 L  RJANDIR-SP440 71017-53.                                          451020
 2667 L  KJANDIR-SP088 01007-57.                          594.9168.2      471030
 2669 L  RPIRACI-SP440 01026-44.                          84.77-139.      451000
 2670 L  RMIRAS2-SP440 71006-23.                          66.7914.86      451020
 2672 L  RCBA-TP-SP440 71026-51.                          410. -144.      451020
 2673 L  RARARAS-SP440 71023-43.                                          451000
 2674 L  MARARSA-SP138 01010-46.                          136.656.28      491014
 2675 L  RGETULI-SP440 71015-24.                                          451000
 2676 L  MGETULI-SP138 01010-23.                          95.4854.14      461010
 2677 L  QATIBA2-SP345 01022-53.                          -113.-33.       501000
 2678 L  MATIBA2-SP138 01010-55.                          93.549.53       451000
 2680 L  RSOLVAY-SP440 71030-52.                          95.  19.3       451000
 2681 L  RSALTO--SP440 71022-50.                                          451000
 2682 L  KIPAUSS-SP088 71052-30.                          -48.1-7.17      471000
 2683 L  RMRONDO-MS440 71025-6.5                          -21.6-69.5      451000
 2700 L  MJALES--SP138 01006-12.                          45.8424.33      461044
 2701 L  MVOTUP2-SP138 01031-15.                          -49.6.966550.   461010
 2702 L  MCARDOS-SP138 01018-15.                          17.923.042      461014
 2703 L  MSJRPRE-SP138 01009-22.                          218.345.64100.  461020
 2704 L  MCATAN2-SP138 01000-22.                          35.0442.52      46 973
 2705 L  MPROMIS-SP138 01020-15.                          -221.-22.7      461020
 2706 L  MAVANHA-SP138 01030-12.                          -232.-32.4      461002
 2707 L  MIBITIN-SP138 01020-26.                          -92. -50.4      461020
 2708 L  MVPARAI-SP138 0 990-13.                          118.634.35      46 984
 2709 L  MPENAPO-SP138 01016-14.                          29.3115.44      46 986
 2710 L  MSTA-FE-SP138 01007-12.                                          46 985
 2711 L  MUBARAN-SP138 01013-16.                          .501 -1.26      461000
 2712 L  MDJUPI1-SP138 01006-4.3                          9.708-4.51      461000
 2716 L  MTLAGOP-MS138 01006-4.5                          -132.61.52      46 990
 2720 L  OGV-----SP230 0 978-60.                          40.  13.1       501000
 2747 L  MBASTOY-SP138 0 984-20.                          37.1916.55      461000
 2748 L  JFLORID-SP069 01013-16.                          14.166.328      461030
 2749 L  MENEI.Y-SP138 0 985-15.                          -.535.9509      461000
 2750 L  MF.PAUL-SP138 0 994-15.                          23.58-27.9      461002
 2751 L  MDRACE1-SP138 01002-12.                          -12.89.658      461006
 2752 L  MPPRUDE-SP138 0 978-15.                                    30.   461006
 2754 L  MROSAN2-SP138 01017-8.5                          -146.-49.5      461000
 2755 L  MMIRANT-SP138 0 995-10.                          22.544.297      461000
 2756 L  OPIRAJ--SP230 01013-35.                          -73.87.395      501000
 2760 L  KDECASY-SP088 41020-19.                          -19. -11.4      471000
 2761 L  OPARAG2-SP230 01004-25.                                          461000
 2762 L  KPARAG2-SP088 2 999-22.                          -54.14.334      471000
 2765 L  KPPRUDE-SP088 0 993-17.                          71.6 17.99      471040
 2766 L  KRANCH.-SP088 0 990-21.                          14.586.736      471000
 2767 L  KPARAG.-SP088 0 999-22.                          14.7 3.688      471000
 2768 L  KASSI1Y-SP088 01008-24.                          -24.39.303      471000
 2769 L  KPALMIT-SP088 01011-21.                          16.94-14.5      471000
 2770 L  OANDIR2-PR230 01008-31.                          101.36.169      50 991
 2771 L  OSGRAND-SP230 01016-32.                                          50 996
 2772 L  KSALTOG-SP088 01009-28.                          -86.96.207      471028
 2773 L  OCHAVAN-SP230 01018-32.                          -345.-93.8      501028
 2774 L  KCHAVAN-SP088 01022-33.                          61.3832.72      471008
 2775 L  OJURUMI-SP230 01009-37.                          -91.6-8.18      501016
 2776 L  MJURUMI-SP138 01009-40.                          33.5 -11.7      461025
 2777 L  OBOTUCA-SP230 0 993-42.                          29.11-70.3      501026
 2778 L  MBOTUCA-SP138 01047-43.                          93.83100.6      48 970
 2779 L  KBOTUCA-SP088 01024-43.                          12.8521.72      47 987
 2780 L  MTIET-A-SP138 01023-51.                          109.4-45.440.   48 973
 2781 L  MITAPE2-SP138 0 984-55.                          94.6754.51      481022
 2782 L  KITAP-2-SP088 01011-56.                          24.73.5443      471022
 2784 L  KCERQUI-SP088 0 996-46.                          9.85 -.85       47 989
 2785 L  KCONCH8-SP088 0 994-46.                          11.742.701      471020
 2786 L  OAVARE--SP230 01000-39.                          32.8818.35      50 976
 2787 L  MDURATE-SP138 0 984-55.                          27.  11.5       481000
 2788 L  KD#QUAT-SP088 21010-21.                          -6.35-12.2      471000
 2789 L  KD1#PAU-SP088 2 999-22.                                          471000
 2790 L  KD2#PAU-SP088 2 999-22.                                          471000
 2791 L  KDECASA-SP088 41022-18.                                          471000
 2792 L  MPRP-5Y-SP138 0 977-15.                          35.848.415      461000
 2800 L  MITARAR-SP138 01006-48.                          -42. 14.85      48 924
 2801 L  MITAPEV-SP138 0 997-51.                          77.565.982      481020
 2802 L  OCBONIT-SP230 01012-50.                                          501020
 2803 L  MCBONI1-SP138 01011-53.                          76.6820.73      481016
 2804 L  MREGIST-SP138 01012-60.                          100. 17.19      481004
 2805 L  MPERUB1-SP138 01015-60.                          55.038.55642.9  481020
 2806 L  MMONGA1-SP138 0 996-58.                          49.051.102      481012
 2808 L  MPAREHA-SP138 01004-56.                          48.2 9.312      48 879
 2809 L  MV.CARV-SP138 01002-56.                          65.5 38.67      48 897
 2810 L  MBERT.2-SP138 01003-56.                          30.21-2.95      48 920
 2811 L  MSSEBAT-SP138 0 992-60.                          39.3 6.538      481010
 2812 L  MCARAGT-SP138 01001-60.                          62.6317.08      48 986
 2814 L  MMAIRP1-SP138 01002-56.                          183.577.87      49 996
 2815 L  KMAIRIP-SP088 01032-59.                                          471002
 2816 L  MMARES--SP138 0 991-59.                          4.15 .0539      481000
 2817 L  KMNOBRE-SP088 01007-61.                          179.846.62      501000
 2818 L  MMNOBRE-SP138 0 988-57.                                          501000
 2819 L  OMNOBRE-SP230 01004-56.                          -26. 35.18      501000
 2820 L  RREPLAN-SP440 71030-45.                          20.  4.07       451000
 2836 L  MD#YTVA-SP138 0 998-56.                          8.5013.617      481000
 2837 L  MJAU2-Y-SP138 01023-36.                               0.         491000
 2838 L  MJAU1-Y-SP138 01008-38.                          113.911.74      491000
 2839 L  MD.EMBR-SP138 01001-56.                          3.   1.058      481000
 2840 L  MA.AZUL-SP138 01018-54.                          84.4920.04      481020
 2841 L  MBIRITI-SP138 01004-55.                          20.746.         48 994
 2842 L  MBOISSU-SP138 0 989-59.                          10.899.637      481008
 2843 L  KC.BRAH-SP088 01003-63.                          34.2214.02      47 996
 2844 L  MEMBREC-SP138 01006-60.                          9.5  2.8        471018
 2845 L  MJUQUEI-SP138 0 990-59.                          8.8235.196      481002
 2846 L  MD#YVAL-SP138 0 998-56.                          4.95 2.11       48 998
 2847 L  MSIF.22-SP138 01005-55.                          3.5  1.4        48 963
 2848 L  KSKOL-C-SP088 0 998-62.                          44.8 9.642      47 950
 2849 L  MTABATI-SP138 0 996-61.                          28.5 6.802      481020
 2850 L  MTREMEM-SP138 01006-61.                          17.65-2.92      48 989
 2851 L  MI.BELA-SP138 0 992-60.                          14.124.141      481020
 2852 L  MLARNJF-SP138 01016-51.                                          481010
 2853 L  MP.BARR-SP138 01016-7.7                          -26.9-9.53      46 989
 2854 L  MRPAR2B-SP138 0 994-58.                          18.  6.1        461004
 2856 L  KVPARAI-SP088 01005-62.                          8.39 1.52       47 978
 2868 L  MBARI-Y-SP138 01012-32.                          12.874.573      491000
 2869 L  MBARI-B-SP138 01012-33.                          -36.667.24      491000
 2870 L  MBARIIB-SP138 01012-33.                          -82.5-4.72      49 994
 2871 L  MBBONIT-SP138 01027-40.                          -166.-64.8      49 964
 2872 L  MRCLAR1-SP138 0 998-47.                          202.976.22      491010
 2873 L  MS.CARL-SP138 0 999-44.                          193.7-6.01      491008
 2874 L  MP.FERR-SP138 01007-43.                          38.2432.66      49 977
 2875 L  MLIMOEI-SP138 01003-43.                          -44.31.525      49 946
 2876 L  MECUNHA-SP138 01001-43.                          -56.927.4       491014
 2877 L  MCACODB-SP138 01006-42.                          -47. -.579      49 963
 2878 L  MSJBVI2-SP138 01005-49.                          63.74-11.3      491014
 2879 L  MMGUAC1-SP138 01004-50.                          71.7345.19      49 996
 2881 L  MLIMEI1-SP138 01002-48.                          105.213.9       49 994
 2882 L  MBRAGA1-SP138 0 995-56.                          151.171.41      49 998
 2883 L  MD#CUMM-SP138 01000-55.                          20.8 5.113      491000
 2884 L  MSAPOS--SP138 01003-51.                          10.663.035      491004
 2885 L  MD.JAG1-SP138 01003-50.                          66.9641.94      49 945
 2886 L  MD.JAG2-SP138 01005-50.                          28.1113.43      49 950
 2900 L  QANHANG-SP345 01002-55.                          -337.-45.1      50 941
 2901 L  OANHANG-SP230 0 998-55.                                          50 987
 2902 L  KNORTE2-SP088 01007-57.                          376.563.14      471000
 2903 L  KANHAGA-SP088 01007-61.                          567. 159.957.6  471000
 2904 L  QNORTE--SP345 01003-54.                          -1056-315.      50 992
 2905 L  KNORT-A-SP088 01007-62.                          567.5186.9      471008
 2906 L  QMREALE-SP345 01001-54.                                          501012
 2907 L  KMREAEA-SP088 01007-58.                          255.478.07      471004
 2908 L  FMREADA-SP020 01000-59.                          85.9 26.91      47 980
 2909 L  QDNORD1-SP345 01016-54.                          -104.-9.54      50 975
 2910 L  QDNORD2-SP345 01020-54.                          -4.8940.42      50 957
 2911 L  QNORDES-SP345 01018-54.                                          50 974
 2912 L  KNORDSA-SP088 01007-62.                          728.279.83      47 938
 2913 L  QITAPET-SP345 01033-53.                          -1033-930.      50 929
 2914 L  KITAPTB-SP088 01007-57.                          242.220.5557.6  47 944
 2915 L  QLESTE--SP345 01029-54.                          -582.-373.      501020
...
99999
DLIN
(De )d O d(Pa )NcEP ( R% )( X% )(Mvar)(Tap)(Tmn)(Tmx)(Phs)(Bc  )(Cn)(Ce)Ns(Cq)(1)(2)(3)(4)(5)(6)(7)(8)(9)(10
 2046      2843 2   .0592 .1572 .01                               51  69  1855
 2046      2955 5         9.6598
 2048      2812 1   1.41297.25512.21                             191 191   237
 2048      2812 2   1.41297.25512.21                             191 191   237
 2203      2772 1   8.210519.349.84                               89 104   131
 2611      2615 1   .06   .81   48.63                           15241524  1524
 2611      2628 1   .4146 5.141 332.28                          15241524  1524
 2611      2628 2   .4146 5.141 332.28                          15241524  1524
 2611      2670 1   .2707 3.357 217.3                           16151777  2611
 2611      2670 2   .2707 3.357 217.3                           16151777  2237
 2611      2620 5         25.204
 2612      2700 5         42.547
 2613      2615 1   .06   .73   43.83                           15241524  1524
 2613      2675 1   .273  3.47  223.8                           15241524  2030
 2613      2683 1   .0095 .0973 8.19                            20302448  1524
 2613      2683 2   .0095 .0973 8.19                            20302448  1524
 2614      2613 1         4.5         .9833.86  1.188       2614 300 36032 300
 2614      2616 1   2.44  11.01 4.454                            206 229   206
 2614      2712 2   .03   .14   .056                             205 241   205
 2614      2716 1   .31   1.43  .41                              206 242   206
 2614      2716 2   .31   1.43  .41                              206 242   206
 2616      2612 1   2.287 10.33 4.18                             196 196   196
 2616      2612 2   2.287 10.33 4.18                             196 196   196
 2616      2615 1         4.45        .9767.86  1.188       2616 300 35832 300
 2616      2615 2         4.45        .9767.86  1.118       2616 300 36032 300
 2616      2708 1   8.320622.5796.18                             139 163   139
 2616      2708 5         26.857
 2617      2655 5         44.968
 2617      2915 5         356.44
 2617      2913 5         105.07
 2617      2662 5         56.696
 2617      2926 5         404.83
 2617      2633 5         106.11
 2617      2631 5         267.66
 2618      2611 1   .19   2.52  136.89                          15241524  1524
 2618      2611 2D  .19   2.52  136.89                          15241524  2050
 2618      2617 1         1.42        .95                        700 750   139
 2618      2617 2         1.42        .95                        750 975   750
 2618      2617 3         1.42        .95                        700 840   400
 2618      2630 1   .4    5.36  290.92                          15241524   400
 2618      2632 1   .41   5.64  304.12                          15241524   400
 2619      2618 1         4.7         .9597.86  1.188       2619 300 35832 300
 2619      2702 2   3.124513.1953.85                             136 136   136
 2619      2700 5         8.3704
 2619      2701 5         38.923
 2620      2622 1   .09   1.2   66.94                           15241524  1524
 2620      2624 1   .2386 3.0313170.89                          20302400  2030
 2620      2915 5         477.77
 2620      2913 5         244.67
 2621      2620 1         4.66        .9798.86  1.188       2621 300 35832 300
 2621      2755 1   3.7   8.33  2.4                               80 108    80
 2621      2755 2   3.7   8.33  2.4                               80 108    80
 2623      2622 1         4.55        .9977.86  1.188       2623 300 36032 300
 2623      2752 5         24.503
 2624      2622 1   .14   1.82  102.2                           20302448  2030
 2624      2628 1   .18   2.37  132.67                          15241524  1524
 2624      2636 1   .4322 5.4916309.59                          20302400  1936
 2624      2625 5         45.863
 2624      2626 5         57.006
 2624      2630 5         7.6826
 2624      2632 5         30.538
 2624      2638 5         71.825
 2624      2656 5         314.62
 2624      2770 5         81.183
 2624      2904 5         35.995
 2624      2923 5         120.13
 2624      2929 5         33.654
 2624      2800 5         108.33
 2624      2754 5         178.54
 2624      2617 5         15.962
 2624      2655 5         19.412
 2624      2915 5         26.748
 2624      2913 5         12.064
 2624      2662 5         57.836
 2624      2926 5         40.126
 2624      2637 5         464.5
 2624      2900 5         10000.
 2625      2627 1         12.6        .9712.785 1.188      -2627  75  9032  38
 2625      2627 2         12.6        .9712.785 1.188      -2627  75  9032  69
 2625      2770 1   .92   5.08  17.7                             319 382   382
 2625      2626 5         75.708
 2625      2630 5         483.97
 2625      2770 5         309.85
 2625      2655 5         285.2
 2625      2915 5         207.85
 2625      2913 5         106.44
 2625      2800 5         10000.
 2625      2617 5         10000.
 2626      2624 1   .07   7.237       .9766.9   1.1         2626 336 36332 336
 2626      2624 2         7.237       .9766.9   1.1         2626 336 37032 336
 2626      2624 3         7.237       .9766.9   1.1         2626 336 40332 336
 2626      2625 1         .051                                   999 999   999
 2626      2770 5         387.89
 2626      2655 5         366.75
 2626      2915 5         267.02
 2626      2913 5         136.74
 2626      2630 5         10000.
 2626      2800 5         10000.
 2627      2762 1   9.833523.6641.                                44  60    44
 2627      2769 5         14.035
 2627      2762 5         28.336
 2628      2641 1   .2909 3.6076233.52                          15241524  1524
 2628      2641 2   .2909 3.6076233.52                          15241524  1524
 2628      2647 1   .3    3.76  242.06                          15241524  1524
 2628      2681 1   .283  3.534 228.46                          15241524     2
 2629      2628 1         4.55        .9919.86  1.188       2629 300 36032 300
 2629      2628 2         4.55        .9919.86  1.188       2629 300 36032 300
 2629      2628 3         4.55        .9919.86  1.188       2629 300 36032 300
 2630      2628 1   .13   1.71  102.88                          15241524  2030
 2630      2669 1   .16   2.14  121.3                           15241524  1524
 2630      2673 1   .1379 1.7096110.65                          15241524  1524
 2630      2673 2   .1379 1.7096110.65                          15241524  1524
 2630      2632 5         9.6448
 2630      2638 5         10.744
 2630      2656 5         19.233
 2630      2900 5         69.644
 2630      2904 5         12.518
 2630      2929 5         18.738
 2630      2878 5         84.748
 2630      2800 5         321.29
 2630      2677 5         68.614
 2630      2617 5         8.558
 2630      2655 5         15.207
 2630      2915 5         66.05
 2630      2913 5         25.915
 2630      2662 5         6.1949
 2630      2926 5         50.567
 2630      2633 5         165.98
 2630      2637 5         67.721
 2630      2631 5         494.46
 2630      2770 5         10000.
 2630      2909 5         10000.
 2630      2923 5         10000.
 2630      2773 5         10000.
 2630      2703 5         10000.
 2630      2635 5         10000.
 2631      2630 1         4.82        .9962.86  1.188       2631 300 35832 300
 2631      2630 2         4.65        .9962.86  1.188       2631 300 33532 300
 2631      2630 3         4.55        .9962.86  1.188       2631 300 36032 300
 2631      2630 4D        4.55        .9941.86  1.188       2631 300 36032 300
 2632      2634 1   .22   3.03  163.37                          15241524  1524
 2632      2638 5         27.895
 2632      2656 5         49.28
 2632      2900 5         170.06
 2632      2904 5         28.462
 2632      2929 5         126.05
 2632      2878 5         62.479
 2632      2703 5         442.56
 2632      2677 5         50.058
 2632      2617 5         9.8374
 2632      2655 5         18.714
 2632      2915 5         308.99
 2632      2913 5         74.258
 2632      2662 5         32.693
 2632      2926 5         468.72
 2632      2633 5         38.24
 2632      2631 5         62.496
 2632      2909 5         10000.
 2632      2923 5         10000.
 2632      2637 5         10000.
 2632      2635 5         10000.
 2633      2632 1         4.71        .9793.856 1.187       2633 300 35132 300
 2633      2632 2         4.63        .9793.856 1.187       2633 300 33532 300
 2633      2632 3         4.51        .9793.856 1.187       2633 300 36032 300
 2633      2632 4         4.5         .9793.856 1.187       2633 300 36032 300
 2633     31005 1   .7    1.83  .44                              140 140   140
 2633      2631 5         14.939
 2634      2636 1   .03   .34   19.21                           15241524  1524
 2635      2634 1         4.61        .9867.86  1.188       2635 315 37832 315
 2635      2634 2         4.61        .9867.86  1.188       2635 315 37832 315
 2635      2634 3         4.45        .9867.86  1.188       2635 300 35832 300
 2635      2634 4         4.45        .9867.84  1.16        2635 300 36032 300
 2635      2881 1   1.65717.53022.13                             131 145   131
 2635     30960 2   .4006 1.4409.4                                97 133    97
 2635      2631 5         165.31
 2635      2881 5         7.8931
 2637      2636 1         4.66        .9937.86  1.188       2637 300 35832 300
 2637      2636 2         4.66        .9937.86  1.188       2637 300 35832 300
 2637      2636 3         4.66        .9937.86  1.188       2637 300 36032 300
 2637      2635 5         3.2292
 2637      2778 5         10000.
 2637      2617 5         10000.
 2637      2662 5         10000.
 2638      2636 1   .06   .8    45.81                           15241524  1524
 2638      2647 1   .03   .38   23.71                           15241524  1524
 2638      2656 5         4.3228
 2638      2900 5         293.47
 2638      2904 5         33.128
 2638      2929 5         55.024
 2638      2878 5         360.25
 2638      2677 5         282.05
 2638      2617 5         44.452
 2638      2655 5         20.009
 2638      2915 5         154.03
 2638      2913 5         73.977
 2638      2662 5         45.181
 2638      2926 5         166.01
 2638      2633 5         327.58
 2638      2637 5         160.66
 2638      2909 5         10000.
...
99999
DCSC
(De ) O  (Pa )NcEP       (Xmin)(Xmax)( Xv )C ( Vsp) (Ext)Nst(1)(2)(3)(4)(5)(6)
99999
DCAI
(Num) O  Gr E (U) UOp ( P ) ( Q ) (A) (B) (C) (D) (Vfl) (Vf)
 2752     1 L   1   1 38.8  22.1                  80.   1006
 2752     9 L   1   1 11.46 20.85                 80.   1006
 2791     1 L   1   1 .2    .1                    80.   1000
 2791     9 L   1   1 -64.9 12.4                  80.   1000
 2852     1 L   1   1 48.48 12.2                  80.   1010
 2852     9 L   1   1 30.39 6.205                 80.   1010
99999
DGEI
(Num) OA Gr E(U)UOpUOn( Pg)( Qg)( Qn)( Qm)(Xtrf) ( Xd)( Xq)( Xl) (fp)( Sn)(Ptu)
99999
DBSH
(NFr) O (NTo) Nc C (Vmn (Vmx Bctrl (Qini) T A (Extr
 2617            D 1000 1100  2617 -180.  C
(G  O E (U) UOp (Sht )
 1        1   1 -180.
FBAN
(NFr) O (NTo) Nc C (Vmn (Vmx Bctrl (Qini) T A (Extr
 2621            D 0950 1050  2621        C
(G  O E (U) UOp (Sht )
 1        1   0 30.
FBAN
(NFr) O (NTo) Nc C (Vmn (Vmx Bctrl (Qini) T A (Extr
 2628            D 0950 1046  2628        C
(G  O E (U) UOp (Sht )
 1        1   0 -180.
FBAN
(NFr) O (NTo) Nc C (Vmn (Vmx Bctrl (Qini) T A (Extr
 2629            D 0950 1050  2629 100.   C
(G  O E (U) UOp (Sht )
 1        1   1 100.
FBAN
(NFr) O (NTo) Nc C (Vmn (Vmx Bctrl (Qini) T A (Extr
 2630            D 0950 1046  2630 -180.  C
(G  O E (U) UOp (Sht )
 1        1   1 -180.
 2        1   0 -180.
FBAN
(NFr) O (NTo) Nc C (Vmn (Vmx Bctrl (Qini) T A (Extr
 2633            D 0950 1050  2633 50.    C
(G  O E (U) UOp (Sht )
 1        2   1 50.
FBAN
(NFr) O (NTo) Nc C (Vmn (Vmx Bctrl (Qini) T A (Extr
 2635            D 0950 1050  2635 200.   C
(G  O E (U) UOp (Sht )
 1        3   2 100.
FBAN
(NFr) O (NTo) Nc C (Vmn (Vmx Bctrl (Qini) T A (Extr
 2636            D 0950 1046  2636        C
(G  O E (U) UOp (Sht )
 1        1   0 -90.
FBAN
(NFr) O (NTo) Nc C (Vmn (Vmx Bctrl (Qini) T A (Extr
 2637            D 0950 1050  2637 100.   C
(G  O E (U) UOp (Sht )
 1        1   1 100.
FBAN
(NFr) O (NTo) Nc C (Vmn (Vmx Bctrl (Qini) T A (Extr
 2639            D 0950 1050  2639 50.    C
(G  O E (U) UOp (Sht )
 1        1   1 50.
 2        1   0 50.
FBAN
(NFr) O (NTo) Nc C (Vmn (Vmx Bctrl (Qini) T A (Extr
 2642            D 0950 1050  2642 91.8   C
(G  O E (U) UOp (Sht )
 1        1   1 63.
 2        2   1 28.8
FBAN
(NFr) O (NTo) Nc C (Vmn (Vmx Bctrl (Qini) T A (Extr
 2647            D 0950 1046  2647        C
(G  O E (U) UOp (Sht )
 1        1   0 -90.
FBAN
(NFr) O (NTo) Nc C (Vmn (Vmx Bctrl (Qini) T A (Extr
 2649            D 0950 1050  2649 200.   C
(G  O E (U) UOp (Sht )
 1        1   1 100.
 2        1   1 100.
FBAN
(NFr) O (NTo) Nc C (Vmn (Vmx Bctrl (Qini) T A (Extr
 2650            D 0950 1050  2650 50.    C
(G  O E (U) UOp (Sht )
 1        1   1 50.
FBAN
(NFr) O (NTo) Nc C (Vmn (Vmx Bctrl (Qini) T A (Extr
 2651            D 0950 1046  2651        C
(G  O E (U) UOp (Sht )
 1        1   0 -90.
FBAN
(NFr) O (NTo) Nc C (Vmn (Vmx Bctrl (Qini) T A (Extr
 2658            D 0950 1050  2658 100.   C
(G  O E (U) UOp (Sht )
 1        2   2 50.
FBAN
(NFr) O (NTo) Nc C (Vmn (Vmx Bctrl (Qini) T A (Extr
 2660            D 0950 1050  2660 100.   C
(G  O E (U) UOp (Sht )
 1        1   1 100.
FBAN
(NFr) O (NTo) Nc C (Vmn (Vmx Bctrl (Qini) T A (Extr
 2667            D 0950 1050  2667 100.   C
(G  O E (U) UOp (Sht )
 1        3   2 50.
FBAN
(NFr) O (NTo) Nc C (Vmn (Vmx Bctrl (Qini) T A (Extr
 2670            D 0950 1046  2670 -180.  C
(G  O E (U) UOp (Sht )
 1        1   1 -180.
 2        1   0 -180.
FBAN
(NFr) O (NTo) Nc C (Vmn (Vmx Bctrl (Qini) T A (Extr
 2674            D 0950 1050  2674 50.    C
(G  O E (U) UOp (Sht )
 1        1   1 50.
FBAN
(NFr) O (NTo) Nc C (Vmn (Vmx Bctrl (Qini) T A (Extr
 2675            D 0950 1046  2675        C
(G  O E (U) UOp (Sht )
 1        1   0 -180.
 2        1   0 -180.
FBAN
(NFr) O (NTo) Nc C (Vmn (Vmx Bctrl (Qini) T A (Extr
 2676            D 0950 1050  2676 50.    C
(G  O E (U) UOp (Sht )
 1        1   1 50.
FBAN
(NFr) O (NTo) Nc C (Vmn (Vmx Bctrl (Qini) T A (Extr
 2678            D 0950 1050  2678 50.    C
(G  O E (U) UOp (Sht )
 1        2   1 50.
FBAN
(NFr) O (NTo) Nc C (Vmn (Vmx Bctrl (Qini) T A (Extr
 2750            D 0950 1050  2750 30.    C
(G  O E (U) UOp (Sht )
 1        1   1 30.
 2        1   0 70.
FBAN
(NFr) O (NTo) Nc C (Vmn (Vmx Bctrl (Qini) T A (Extr
 2751            D 0950 1050  2751        C
(G  O E (U) UOp (Sht )
 1        1   0 30.
 2        1   0 50.
FBAN
(NFr) O (NTo) Nc C (Vmn (Vmx Bctrl (Qini) T A (Extr
 2755            D 0950 1050  2755        C
(G  O E (U) UOp (Sht )
 1        1   0 30.
FBAN
(NFr) O (NTo) Nc C (Vmn (Vmx Bctrl (Qini) T A (Extr
 2766            D 0950 1050  2766 1.5    C
(G  O E (U) UOp (Sht )
 1        1   1 1.5
FBAN
(NFr) O (NTo) Nc C (Vmn (Vmx Bctrl (Qini) T A (Extr
 2767            D 0950 1050  2767 .9     C
(G  O E (U) UOp (Sht )
 1        1   1 .9
FBAN
(NFr) O (NTo) Nc C (Vmn (Vmx Bctrl (Qini) T A (Extr
 2778            D 0950 1050  2778 100.   C
(G  O E (U) UOp (Sht )
 1        1   1 100.
FBAN
(NFr) O (NTo) Nc C (Vmn (Vmx Bctrl (Qini) T A (Extr
 2781            D 0950 1050  2781 30.    C
(G  O E (U) UOp (Sht )
 1        1   1 30.
FBAN
(NFr) O (NTo) Nc C (Vmn (Vmx Bctrl (Qini) T A (Extr
 2800            D 0950 1050  2800        C
(G  O E (U) UOp (Sht )
 1        1   0 30.
FBAN
(NFr) O (NTo) Nc C (Vmn (Vmx Bctrl (Qini) T A (Extr
 2802            D 0950 1050  2802 30.    C
(G  O E (U) UOp (Sht )
 1        1   1 30.
FBAN
(NFr) O (NTo) Nc C (Vmn (Vmx Bctrl (Qini) T A (Extr
 2803            D 0950 1050  2803 60.    C
(G  O E (U) UOp (Sht )
 1        2   2 30.
 2        1   0 30.
FBAN
(NFr) O (NTo) Nc C (Vmn (Vmx Bctrl (Qini) T A (Extr
 2804            D 0950 1050  2804 50.    C
(G  O E (U) UOp (Sht )
 1        1   1 50.
FBAN
(NFr) O (NTo) Nc C (Vmn (Vmx Bctrl (Qini) T A (Extr
 2812            D 0950 1050  2812 50.    C
(G  O E (U) UOp (Sht )
 1        1   1 50.
FBAN
(NFr) O (NTo) Nc C (Vmn (Vmx Bctrl (Qini) T A (Extr
 2814            D 0950 1050  2814 60.    C
(G  O E (U) UOp (Sht )
 1        1   1 60.
FBAN
(NFr) O (NTo) Nc C (Vmn (Vmx Bctrl (Qini) T A (Extr
 2874            D 0950 1050  2874 50.    C
(G  O E (U) UOp (Sht )
 1        1   1 50.
FBAN
(NFr) O (NTo) Nc C (Vmn (Vmx Bctrl (Qini) T A (Extr
 2882            D 0950 1050  2882 50.    C
(G  O E (U) UOp (Sht )
 1        1   1 50.
 2        1   0 50.
FBAN
(NFr) O (NTo) Nc C (Vmn (Vmx Bctrl (Qini) T A (Extr
 2901            D 0950 1050  2901 -60.   C
(G  O E (U) UOp (Sht )
 1        2   1 -60.
FBAN
(NFr) O (NTo) Nc C (Vmn (Vmx Bctrl (Qini) T A (Extr
 2902            D 0950 1050  2902 28.8   C
(G  O E (U) UOp (Sht )
 1        2   1 28.8
FBAN
(NFr) O (NTo) Nc C (Vmn (Vmx Bctrl (Qini) T A (Extr
 2904            D 0950 1050  2904        C
(G  O E (U) UOp (Sht )
 1        1   0 -132.
FBAN
(NFr) O (NTo) Nc C (Vmn (Vmx Bctrl (Qini) T A (Extr
 2905            D 0950 1050  2905 28.8   C
(G  O E (U) UOp (Sht )
 1        1   1 28.8
FBAN
(NFr) O (NTo) Nc C (Vmn (Vmx Bctrl (Qini) T A (Extr
 2906            D 0950 1050  2906 -132.  C
(G  O E (U) UOp (Sht )
 1        1   1 -132.
FBAN
(NFr) O (NTo) Nc C (Vmn (Vmx Bctrl (Qini) T A (Extr
 2912            D 0950 1050  2912 86.4   C
(G  O E (U) UOp (Sht )
 1        6   3 28.8
FBAN
(NFr) O (NTo) Nc C (Vmn (Vmx Bctrl (Qini) T A (Extr
 2916            D 0950 1050  2916 126.   C
(G  O E (U) UOp (Sht )
 1        3   2 63.
FBAN
(NFr) O (NTo) Nc C (Vmn (Vmx Bctrl (Qini) T A (Extr
 2927            D 0950 1050  2927 126.   C
(G  O E (U) UOp (Sht )
 1        1   1 63.
 2        2   1 63.
FBAN
(NFr) O (NTo) Nc C (Vmn (Vmx Bctrl (Qini) T A (Extr
 2929            D 0950 1050  2929 150.   C
(G  O E (U) UOp (Sht )
 1        1   1 150.
 2        1   0 200.
FBAN
(NFr) O (NTo) Nc C (Vmn (Vmx Bctrl (Qini) T A (Extr
 2938            D 0950 1050  2938 115.2  C
(G  O E (U) UOp (Sht )
 1        6   4 28.8
FBAN
(NFr) O (NTo) Nc C (Vmn (Vmx Bctrl (Qini) T A (Extr
 2941            D 0950 1050  2941        C
(G  O E (U) UOp (Sht )
 1        1   0 -60.
FBAN
(NFr) O (NTo) Nc C (Vmn (Vmx Bctrl (Qini) T A (Extr
 2942            D 0950 1050  2942        C
(G  O E (U) UOp (Sht )
 1        1   0 -60.
FBAN
(NFr) O (NTo) Nc C (Vmn (Vmx Bctrl (Qini) T A (Extr
30952            D 0950 1050 30952 50.    C
(G  O E (U) UOp (Sht )
 1        2   1 50.
FBAN
(NFr) O (NTo) Nc C (Vmn (Vmx Bctrl (Qini) T A (Extr
30953            D 0950 1050 30953 30.    C
(G  O E (U) UOp (Sht )
 1        1   1 30.
FBAN
(NFr) O (NTo) Nc C (Vmn (Vmx Bctrl (Qini) T A (Extr
 2611    2628 1  D 0950 1046  2628 0.     C    2628
(G  O E (U) UOp (Sht )
10        1   0 -90.
FBAN
(NFr) O (NTo) Nc C (Vmn (Vmx Bctrl (Qini) T A (Extr
 2611    2628 2  D 0950 1046  2628 0.     C    2628
(G  O E (U) UOp (Sht )
10        1   0 -180.
FBAN
(NFr) O (NTo) Nc C (Vmn (Vmx Bctrl (Qini) T A (Extr
 2618    2630 1  D 0950 1046  2630 -180.  C    2630
(G  O E (U) UOp (Sht )
10        1   1 -180.
FBAN
(NFr) O (NTo) Nc C (Vmn (Vmx Bctrl (Qini) T A (Extr
 2618    2632 1  D 0950 1046  2632 0.     C    2632
(G  O E (U) UOp (Sht )
10        1   0 -180.
FBAN
(NFr) O (NTo) Nc C (Vmn (Vmx Bctrl (Qini) T A (Extr
 2620    2624 1  D 0950 1046  2624 0.     C    2624
(G  O E (U) UOp (Sht )
10        1   0 -90.
FBAN
(NFr) O (NTo) Nc C (Vmn (Vmx Bctrl (Qini) T A (Extr
 2624    2622 1  D 0950 1046  2624 -100.  C    2624
(G  O E (U) UOp (Sht )
10        1   1 -100.
FBAN
(NFr) O (NTo) Nc C (Vmn (Vmx Bctrl (Qini) T A (Extr
 2624    2636 1  D 0950 1046  2636 0.     C    2636
(G  O E (U) UOp (Sht )
10        1   0 -90.
FBAN
(NFr) O (NTo) Nc C (Vmn (Vmx Bctrl (Qini) T A (Extr
 2628    2647 1  D 0950 1046  2647 0.     C    2647
(G  O E (U) UOp (Sht )
10        1   0 -90.
FBAN
(NFr) O (NTo) Nc C (Vmn (Vmx Bctrl (Qini) T A (Extr
 2628    2681 1  D 0950 1046  2681 0.     C    2681
(G  O E (U) UOp (Sht )
10        1   0 -90.
FBAN
(NFr) O (NTo) Nc C (Vmn (Vmx Bctrl (Qini) T A (Extr
 2643    2641 1  D 0950 1046  2643 0.     C    2643
(G  O E (U) UOp (Sht )
10        1   0 -180.
FBAN
(NFr) O (NTo) Nc C (Vmn (Vmx Bctrl (Qini) T A (Extr
 2651    2659 1  D 0950 1046  2651 -90.   C    2651
(G  O E (U) UOp (Sht )
10        1   1 -90.
FBAN
(NFr) O (NTo) Nc C (Vmn (Vmx Bctrl (Qini) T A (Extr
 2672    2643 1  D 0950 1046  2643 0.     C    2643
(G  O E (U) UOp (Sht )
10        1   0 -180.
FBAN
(NFr) O (NTo) Nc C (Vmn (Vmx Bctrl (Qini) T A (Extr
 2675    2628 1  D 0950 1046  2628 0.     C    2628
(G  O E (U) UOp (Sht )
10        1   0 -180.
FBAN
(NFr) O (NTo) Nc C (Vmn (Vmx Bctrl (Qini) T A (Extr
 2675    2628 2  D 0950 1046  2628 0.     C    2628
(G  O E (U) UOp (Sht )
10        1   0 -180.
FBAN
(NFr) O (NTo) Nc C (Vmn (Vmx Bctrl (Qini) T A (Extr
 2904    2906 1  D 0950 1050  2904 -132.  C    2904
(G  O E (U) UOp (Sht )
10        1   1 -132.
FBAN
(NFr) O (NTo) Nc C (Vmn (Vmx Bctrl (Qini) T A (Extr
 2934    2933 1  D 0950 1050  2934 -100.  C    2934
(G  O E (U) UOp (Sht )
10        1   1 -100.
FBAN
(NFr) O (NTo) Nc C (Vmn (Vmx Bctrl (Qini) T A (Extr
 2934    2933 2  D 0950 1050  2934 -100.  C    2934
(G  O E (U) UOp (Sht )
10        1   1 -100.
FBAN
(NFr) O (NTo) Nc C (Vmn (Vmx Bctrl (Qini) T A (Extr
 2934    2933 3  D 0950 1050  2934 0.     C    2934
(G  O E (U) UOp (Sht )
10        1   0 -100.
FBAN
(NFr) O (NTo) Nc C (Vmn (Vmx Bctrl (Qini) T A (Extr
 2934    2971 1  D 0950 1050  2934 0.     C    2934
(G  O E (U) UOp (Sht )
10        1   0 -100.
FBAN
(NFr) O (NTo) Nc C (Vmn (Vmx Bctrl (Qini) T A (Extr
 2934    2971 2  D 0950 1050  2934 0.     C    2934
(G  O E (U) UOp (Sht )
10        1   0 -100.
FBAN
99999
DSHL
(De ) O  (Pa )Nc (Shde)(Shpa) ED EP
99999
DGER
 2963          28.5         100.
 2964          28.5         100.
99999
DCAR
(tp) (no ) C (tp) (no ) C (tp) (no ) C (tp) (no ) O (A) (B) (C) (D) (Vfl)
99999
DCER
(No ) O Gr Un (Kb ) (Incl) ( Qg)( Qn)( Qm) C E
99999
DCTR
(Nf ) O (Nt ) Nc Vmin Vmax C M (Fmin) (Fmax) C ( Vsp) (Ext) Ns
99999
DGLT
(G (Vmn) (Vmx) (Vmne (Vmxe
 4 1.    1.1   1.    1.1
 2 .95   1.05  .95   1.05
 0 .95   1.05  .9    1.05
( 5 .9    1.1   .9    1.1
(11 .945  1.105 .945  1.105
(12 .945  1.055 .8    1.2
 7 .95   1.046 .945  1.055
( 3 .9    1.05  .8    1.2
( 8 .9    1.042 .9    1.1
(13 .845  1.2   .8    1.2
( 1 .95   1.05  .9    1.05
( D .8    1.2   .9    1.046
( O .8    1.2   .9    1.05
( T .95   1.1   .9    1.1
99999
DARE
(Ar    (Xchg)     (      Identificacao da area       ) (Xmin) (Xmax)
 45               CTEEP - SISTEMA DE 440KV E 500
 46               CTEEP - 138KV DA REGIÃO OESTE
 47               CTEEP - SISTEMA DE 88KV
 48               CTEEP - 138KV DO LITORAL E C.
 49               CTEEP - 138KV DA REGIÃO DO PAR
 50               CTEEP - SISTEMA DE 345KV E 230
99999
DTPF CIRC
(De ) (Pa ) Nc (De ) (Pa ) Nc (De ) (Pa ) Nc (De ) (Pa ) Nc (De ) (Pa ) Nc O
99999
DMTE
(tp) (no ) C (tp) (no ) C (tp) (no ) C (tp) (no ) O F
99999
DMFL CIRC
(De ) (Pa ) Nc (De ) (Pa ) Nc (De ) (Pa ) Nc (De ) (Pa ) Nc (De ) (Pa ) Nc O
 2046  2843  2                                                             A
 2048  2812  1                                                             A
 2048  2812  2                                                             A
 2203  2772  1                                                             A
 2611  2615  1                                                             A
 2611  2628  1                                                             A
 2611  2628  2                                                             A
 2611  2670  1                                                             A
 2611  2670  2                                                             A
 2613  2615  1                                                             A
 2613  2675  1                                                             A
 2613  2683  1                                                             A
 2613  2683  2                                                             A
 2614  2613  1                                                             A
 2614  2616  1                                                             A
 2614  2712  2                                                             A
 2614  2716  1                                                             A
 2614  2716  2                                                             A
 2616  2612  1                                                             A
 2616  2612  2                                                             A
 2616  2615  1                                                             A
 2616  2615  2                                                             A
 2616  2708  1                                                             A
 2618  2611  1                                                             A
 2618  2611  2                                                             A
 2618  2617  1                                                             A
 2618  2617  2                                                             A
 2618  2617  3                                                             A
 2618  2630  1                                                             A
 2618  2632  1                                                             A
 2619  2618  1                                                             A
 2619  2702  2                                                             A
 2620  2622  1                                                             A
 2620  2624  1                                                             A
 2621  2620  1                                                             A
 2621  2755  1                                                             A
 2621  2755  2                                                             A
 2623  2622  1                                                             A
 2624  2622  1                                                             A
 2624  2628  1                                                             A
 2624  2636  1                                                             A
 2624  2900  5                                                             A
 2625  2627  1                                                             A
 2625  2627  2                                                             A
 2625  2770  1                                                             A
 2625  2800  5                                                             A
 2625  2617  5                                                             A
 2626  2624  1                                                             A
 2626  2624  2                                                             A
 2626  2624  3                                                             A
 2626  2625  1                                                             A
 2626  2630  5                                                             A
 2626  2800  5                                                             A
 2627  2762  1                                                             A
 2628  2641  1                                                             A
 2628  2641  2                                                             A
 2628  2647  1                                                             A
 2628  2681  1                                                             A
 2629  2628  1                                                             A
 2629  2628  2                                                             A
 2629  2628  3                                                             A
 2630  2628  1                                                             A
 2630  2669  1                                                             A
 2630  2673  1                                                             A
 2630  2673  2                                                             A
 2630  2770  5                                                             A
 2630  2909  5                                                             A
 2630  2923  5                                                             A
 2630  2773  5                                                             A
 2630  2703  5                                                             A
 2630  2635  5                                                             A
 2631  2630  1                                                             A
 2631  2630  2                                                             A
 2631  2630  3                                                             A
 2631  2630  4                                                             A
 2632  2634  1                                                             A
 2632  2909  5                                                             A
 2632  2923  5                                                             A
 2632  2637  5                                                             A
 2632  2635  5                                                             A
 2633  2632  1                                                             A
 2633  2632  2                                                             A
 2633  2632  3                                                             A
 2633  2632  4                                                             A
 2633 31005  1                                                             A
 2634  2636  1                                                             A
 2635  2634  1                                                             A
 2635  2634  2                                                             A
 2635  2634  3                                                             A
 2635  2634  4                                                             A
 2635  2881  1                                                             A
 2635 30960  2                                                             A
 2637  2636  1                                                             A
 2637  2636  2                                                             A
 2637  2636  3                                                             A
 2637  2778  5                                                             A
 2637  2617  5                                                             A
 2637  2662  5                                                             A
 2638  2636  1                                                             A
 2638  2647  1                                                             A
 2638  2909  5                                                             A
 2638  2923  5                                                             A
 2638  2635  5                                                             A
 2639  2638  1                                                             A
 2639  2882  1                                                             A
 2640  2048  1                                                             A
 2641  2642  1                                                             A
 2641  2642  2                                                             A
 2641  2642  3                                                             A
 2641  2672  1                                                             A
 2643  2641  1                                                             A
 2643  2665  1                                                             A
 2643  2680  1                                                             A
 2644  2643  1                                                             A
 2645  2643  1                                                             A
 2645  2643  2                                                             A
 2645  2919  1                                                             A
 2645  2926  1                                                             A
 2645  2929  1                                                             A
 2645  2929  2                                                             A
 2646  2643  1                                                             A
 2646  2643  2                                                             A
 2646  2643  3                                                             A
 2646  2808  2                                                             A
 2647  2681  1                                                             A
 2648  2647  1                                                             A
 2649  2648  1                                                             A
 2649  2648  2                                                             A
 2649  2648  3                                                             A
 2649  2939  1                                                             A
 2649  2939  2                                                             A
 2649  2939  3                                                             A
 2649  2939  4                                                             A
 2650  2648  1                                                             A
 2650  2648  2                                                             A
 2651  2659  1                                                             A
 2651 30951  1                                                             A
 2652  2651  1                                                             A
 2653  2651  1                                                             A
 2653  2651  2                                                             A
 2654  2651  1                                                             A
 2654  2651  2                                                             A
 2654  2651  3                                                             A
 2654  2810  1                                                             A
 2654  2847  2                                                             A
 2654  2854  1                                                             A
 2655  2662  1                                                             A
 2656  2655  1                                                             A
 2656  2655  2                                                             A
 2656  2909  5                                                             A
 2656  2923  5                                                             A
 2656  2878  5                                                             A
 2656  2635  5                                                             A
 2656  2633  5                                                             A
 2657  2656  1                                                             A
 2657  2656  2                                                             A
 2657  2957  2                                                             A
 2658  2048  1                                                             A
 2658  2656  1                                                             A
 2658  2656  2                                                             A
 2658  2656  3                                                             A
 2658  2844  1                                                             A
 2659  2673  1                                                             A
 2660  2659  1                                                             A
 2660  2659  2                                                             A
 2660  2659  3                                                             A
 2660  2878  1                                                             A
 2660  2879  1                                                             A
 2660  2879  2                                                             A
 2660  2881  1                                                             A
 2661  2635  1                                                             A
 2661  2660  1                                                             A
 2661  2660  2                                                             A
 2661  2879  1                                                             A
 2661  2879  2                                                             A
 2661 31112  1                                                             A
 2661 31115  1                                                             A
 2666  2664  1                                                             A
 2666  2665  1                                                             A
 2666  2667  1                                                             A
 2666  2667  2                                                             A
 2666  2667  3                                                             A
 2669  2634  1                                                             A
 2670  2630  1                                                             A
 2670  2630  2                                                             A
 2672  2643  1                                                             A
 2673  2820  1                                                             A
 2674  2673  1                                                             A
 2674  2673  2                                                             A
 2674  2673  3                                                             A
 2674  2872  1                                                             A
 2674  2872  2                                                             A
 2674  2874  1                                                             A
 2674  2881  1                                                             A
 2675  2628  1                                                             A
 2675  2628  2                                                             A
 2676  2675  1                                                             A
 2676  2675  2                                                             A
 2677  2678  1                                                             A
 2678  2814  1                                                             A
...
99999
DGBT
(G ( kV)
( Z 999.
( U 765.
( T 525.
 S 500.
 R 440.
 Q 345.
( P 289.
 O 230.
( N 161.
 M 138.
( L 115.
 K 88.
 J 69.
 H 34.5
( G 23.
 F 20.
( V 18.
( E 14.4
 D 13.8
( C 13.2
( B 11.
 A 6.9
99999
DINJ
99999
FIM
